OPT_V10/Two_days_MYC3_SOS/powerflow_results_t31.txt
Pandapower Network Debug Info
==================================================

BUS:
       vm_pu  va_degree      p_mw    q_mvar
0   0.993331   0.093858  0.000857  0.000858
1   0.989024   0.160943  0.001623  0.002171
2   0.985474   0.216205  0.001901  0.002522
3   0.989799   0.145480  0.002612  0.003364
4   0.999886   0.000631  0.008887  0.010801
5   0.999873   0.000628  0.011873  0.007424
6   0.999862   0.000676  0.012583  0.011512
7   0.999930   0.000465  0.000000  0.000000
8   0.999930   0.000471  0.000000  0.000000
9   1.000000   0.000000 -0.040466 -0.043737
10  1.000000   0.000006  0.000000  0.000000
--------------------------------------------------

LINE:
   p_from_mw  q_from_mvar   p_to_mw  q_to_mvar         pl_mw       ql_mvar  i_from_ka   i_to_ka      i_ka  vm_from_pu  va_from_degree  vm_to_pu  va_to_degree  loading_percent
0   0.040456     0.039737 -0.040453  -0.039735  3.145414e-06  2.452531e-06   0.002183  0.002183  0.002183    1.000000        0.000006  0.999930      0.000465         0.948987
1   0.033346     0.029739 -0.033344  -0.029738  1.543967e-06  1.203856e-06   0.001720  0.001720  0.001720    0.999930        0.000465  0.999886      0.000631         0.747774
2   0.007097     0.008995 -0.007036  -0.008947  6.141531e-05  4.788653e-05   0.016540  0.016540  0.016540    0.999930        0.000471  0.993331      0.093858         7.191122
3  -0.024456    -0.018937  0.024457   0.018937  3.309365e-07  2.580366e-07   0.001191  0.001191  0.001191    0.999873        0.000628  0.999886      0.000631         0.517686
4  -0.012583    -0.011512  0.012583   0.011512  1.422946e-07  1.109495e-07   0.000657  0.000657  0.000657    0.999862        0.000676  0.999873      0.000628         0.285450
5  -0.003534    -0.004699  0.003554   0.004716  2.090968e-05  1.630362e-05   0.008581  0.008581  0.008581    0.989024        0.160943  0.993331      0.093858         3.730801
6  -0.002612    -0.003364  0.002625   0.003373  1.236105e-05  9.638117e-06   0.006210  0.006210  0.006210    0.989799        0.145480  0.993331      0.093858         2.700186
7  -0.001901    -0.002522  0.001911   0.002529  9.290081e-06  7.243629e-06   0.004626  0.004626  0.004626    0.985474        0.216205  0.989024      0.160943         2.011104
--------------------------------------------------

TRAFO:
    p_hv_mw  q_hv_mvar   p_lv_mw  q_lv_mvar    pl_mw  ql_mvar   i_hv_ka   i_lv_ka  vm_hv_pu  va_hv_degree  vm_lv_pu  va_lv_degree  loading_percent
0  0.007107   0.009995 -0.007097  -0.008995  0.00001    0.001  0.000472  0.016540   0.99993      0.000465   0.99993      0.000471         0.122654
1  0.040466   0.043737 -0.040456  -0.039737  0.00001    0.004  0.000491  0.002183   1.00000      0.000000   1.00000      0.000006         0.148964
--------------------------------------------------
